FoamFile
{
    version     2.0;
    format      ascii;
    class       dictionary;
    object      blockMeshDict;
}

convertToMeters 1;

vertices
(
    (-4 -4 -1)
    ( 4 -4 -1)
    ( 4  4 -1)
    (-4  4 -1)
    (-4 -4  1)
    ( 4 -4  1)
    ( 4  4  1)
    (-4  4  1)
);

blocks
(
    hex (0 1 2 3 4 5 6 7) (80 80 40) simpleGrading (1 1 1)
);

edges
(
);

boundary
(
);

mergePatchPairs
(
);
